*Heading
** Job name: NotchedBeam Model name: Model-1
**
** PARTS
**
*Part, name=Part-1
*End Part
**
** ASSEMBLY
**
*Assembly, name=Assembly
**  
*Instance, name=Part-1-1, part=Part-1
*Node
      1,           0.,           5.
      2,           6.,           5.
      3,           6.,           0.
      4,          54.,           0.
      5,          54.,          12.
      6,           0.,          12.
      7,          0.5,           5.
      8,           1.,           5.
      9,          1.5,           5.
     10,           2.,           5.
     11,          2.5,           5.
     12,           3.,           5.
     13,          3.5,           5.
     14,           4.,           5.
     15,          4.5,           5.
     16,           5.,           5.
     17,          5.5,           5.
     18,           6.,          4.5
     19,           6.,           4.
     20,           6.,          3.5
** ... 347 like lines cut
*Element, type=CPS3
1, 363, 327, 317
*Element, type=CPS4
  2,  93,  94, 166, 103
  3,  77, 155, 154,  76
  4, 335, 101,  18,  19
  5, 111, 102,  20,  21
  6,  92,  93, 103, 104
  7,  88, 256, 331,  87
  8, 176,  90,  91, 257
  9,  91,  92, 104, 257
 10, 177, 165, 105, 178
 11,  15,  16, 163, 106
 12, 206, 106, 163, 207
 13, 106, 105,  14,  15
 14,  84, 107, 109,  83
 15, 283, 243, 101, 212
 16, 112, 111,  21,  22
 17,  19,  20, 102, 335
 18, 112, 210, 251, 339
 19, 251, 210,  23,  24
 20, 338, 251,  24,  25
 21, 330, 338,  25,  26
** ... 296 like lines cut
** Region: (Section-1:Picked)
*Elset, elset=_I1, internal, generate
   1,  317,    1
** Section: Section-1
*Solid Section, elset=_I1, material=Material-1
4.,
*End Instance
*Nset, nset=_PickedSet5, internal, instance=Part-1-1
  1,  6, 87, 88, 89, 90, 91, 92, 93, 94, 95, 96, 97, 98, 99
*Elset, elset=_PickedSet5, internal, instance=Part-1-1
   2,   6,   7,   8,   9,  76,  78,  88, 148, 149, 153, 156, 228, 306
*Nset, nset=_PickedSet6, internal, instance=Part-1-1
  4,  5, 50, 51, 52, 53, 54, 55, 56, 57, 58, 59, 60
*Elset, elset=_PickedSet6, internal, instance=Part-1-1
  38,  39,  41,  42,  43,  44,  46,  51, 120, 121, 124, 132
*Elset, elset=__PickedSurf4_S3, internal, instance=Part-1-1
 51,
*Elset, elset=__PickedSurf4_S4, internal, instance=Part-1-1
   3,  14,  28,  32,  34,  48,  50,  52,  55,  56,  61,  64,  65,  67,  70,  72
  90,  94, 105, 106, 118
*Elset, elset=__PickedSurf4_S2, internal, instance=Part-1-1
  36,  96, 111, 143, 306
*Surface, type=ELEMENT, name=_PickedSurf4, internal
__PickedSurf4_S3, S3
__PickedSurf4_S4, S4
__PickedSurf4_S2, S2
*End Assembly
** 
** MATERIALS
** 
*Material, name=Material-1
*Elastic
 3e+07, 0.2
** ----------------------------------------------------------------
** 
** STEP: Step-1
** 
*Step, name=Step-1
*Static
1., 1., 1e-05, 1.
** 
** BOUNDARY CONDITIONS
** 
** Name: BC-1 Type: Symmetry/Antisymmetry/Encastre
*Boundary
_PickedSet5, XSYMM
** Name: BC-2 Type: Symmetry/Antisymmetry/Encastre
*Boundary
_PickedSet6, ENCASTRE
** 
** LOADS
** 
** Name: Load-1   Type: Pressure
*Dsload
_PickedSurf4, P, 50.
** 
** OUTPUT REQUESTS
** 
*Restart, write, frequency=1
** 
** FIELD OUTPUT: F-Output-1
** 
*Output, field, variable=PRESELECT
** 
** FIELD OUTPUT: F-Output-2
** 
*Output, field
*Node Output
U, RF
*Element Output
S, LOADS
** 
** HISTORY OUTPUT: H-Output-1
** 
*Output, history, variable=PRESELECT
*El Print, freq=999999
*Node Print, freq=999999
*End Step
