  
       XFOIL         Version 6.94
  
 Calculated polar for: NACA 0018                                       
  
 1 1 Reynolds number fixed          Mach number fixed         
  
 xtrf =   1.000 (top)        1.000 (bottom)  
 Mach =   0.150     Re =     0.500 e 6     Ncrit =   9.000
  
  alpha     CL        CD       CDp       CM    Top_Xtr Bot_Xtr
 ------- -------- --------- --------- -------- ------- -------
   0.000   0.0000   0.00847   0.00276   0.0000  0.6185  0.6185
   1.000   0.1070   0.00852   0.00283   0.0020  0.5561  0.6834
   2.000   0.2131   0.00872   0.00304   0.0041  0.4950  0.7480
   3.000   0.3199   0.00903   0.00339   0.0062  0.4362  0.8102
   4.000   0.4246   0.00960   0.00393   0.0088  0.3787  0.8665
   5.000   0.5281   0.01035   0.00463   0.0116  0.3234  0.9142
   6.000   0.6358   0.01144   0.00554   0.0133  0.2694  0.9497
   7.000   0.7660   0.01287   0.00673   0.0096  0.2150  0.9713
   8.000   0.9106   0.01446   0.00812   0.0024  0.1668  0.9842
   9.000   1.0496   0.01629   0.00980  -0.0042  0.1298  0.9969
   9.600   1.0966   0.01726   0.01074  -0.0013  0.1155  1.0000
  10.000   1.0928   0.01782   0.01127   0.0074  0.1097  1.0000
  11.000   1.0992   0.01944   0.01294   0.0256  0.0972  1.0000
  12.000   1.1443   0.02234   0.01593   0.0339  0.0848  1.0000
  13.000   1.1871   0.02664   0.02035   0.0394  0.0748  1.0000
  14.000   1.2198   0.03277   0.02667   0.0427  0.0673  1.0000
  15.000   1.2384   0.04119   0.03532   0.0438  0.0614  1.0000
  16.000   1.2400   0.05228   0.04664   0.0427  0.0569  1.0000
  17.000   1.2397   0.06477   0.05944   0.0395  0.0529  1.0000
  18.000   1.2254   0.07944   0.07440   0.0350  0.0497  1.0000
  19.000   1.2107   0.09499   0.09023   0.0290  0.0469  1.0000
  20.000   1.1925   0.11138   0.10690   0.0221  0.0442  1.0000
  21.000   1.1742   0.12867   0.12448   0.0133  0.0417  1.0000
  22.000   1.1561   0.14621   0.14228   0.0035  0.0395  1.0000
  23.000   1.1048   0.17156   0.16812  -0.0129  0.0372  1.0000
  23.800   1.0914   0.18693   0.18361  -0.0236  0.0353  1.0000
