  
       XFOIL         Version 6.94
  
 Calculated polar for: Foil-1                                     
  
 1 1 Reynolds number fixed          Mach number fixed         
  
 xtrf =   1.000 (top)        1.000 (bottom)  
 Mach =   0.150     Re =     0.577 e 6     Ncrit =   9.000
  
  alpha     CL        CD       CDp       CM    Top_Xtr Bot_Xtr
 ------- -------- --------- --------- -------- ------- -------
   0.000   0.0552   0.00703   0.00208  -0.0207  0.7130  0.6235
   0.500   0.1134   0.00710   0.00209  -0.0205  0.6777  0.6459
   1.000   0.1713   0.00721   0.00213  -0.0203  0.6361  0.6667
   1.500   0.2289   0.00737   0.00221  -0.0201  0.5856  0.6865
   2.000   0.2855   0.00765   0.00234  -0.0197  0.5239  0.7058
   2.500   0.3412   0.00807   0.00254  -0.0193  0.4488  0.7240
   3.000   0.3961   0.00860   0.00282  -0.0189  0.3681  0.7412
   3.500   0.4508   0.00921   0.00316  -0.0185  0.2940  0.7580
   4.000   0.5057   0.00980   0.00354  -0.0181  0.2364  0.7747
   4.500   0.5610   0.01035   0.00395  -0.0177  0.1947  0.7915
   5.000   0.6151   0.01091   0.00442  -0.0171  0.1626  0.8078
   5.500   0.6696   0.01139   0.00489  -0.0165  0.1406  0.8237
   6.000   0.7235   0.01192   0.00541  -0.0157  0.1231  0.8400
   6.500   0.7766   0.01249   0.00599  -0.0149  0.1090  0.8568
   7.000   0.8282   0.01312   0.00663  -0.0138  0.0969  0.8746
   7.500   0.8783   0.01375   0.00729  -0.0124  0.0869  0.8936
   8.000   0.9265   0.01429   0.00792  -0.0105  0.0791  0.9149
   8.500   0.9686   0.01499   0.00871  -0.0075  0.0721  0.9440
   9.000   1.0184   0.01570   0.00944  -0.0063  0.0652  1.0000
   9.500   1.0719   0.01662   0.01042  -0.0063  0.0598  1.0000
  10.000   1.1186   0.01795   0.01173  -0.0052  0.0546  1.0000
  10.500   1.1670   0.01894   0.01282  -0.0042  0.0510  1.0000
  11.000   1.2050   0.02061   0.01450  -0.0021  0.0471  1.0000
  11.500   1.2454   0.02180   0.01583   0.0000  0.0447  1.0000
  12.000   1.2774   0.02334   0.01746   0.0029  0.0424  1.0000
  12.500   1.2956   0.02595   0.02015   0.0064  0.0403  1.0000
  13.000   1.3235   0.02801   0.02241   0.0085  0.0387  1.0000
  13.500   1.3451   0.03070   0.02525   0.0104  0.0371  1.0000
  14.000   1.3606   0.03412   0.02879   0.0117  0.0357  1.0000
  14.500   1.3612   0.03925   0.03408   0.0126  0.0344  1.0000
  15.000   1.3695   0.04410   0.03919   0.0123  0.0335  1.0000
  15.500   1.3703   0.05012   0.04544   0.0111  0.0326  1.0000
  16.000   1.3653   0.05722   0.05276   0.0088  0.0317  1.0000
  16.500   1.3547   0.06556   0.06129   0.0053  0.0309  1.0000
  17.000   1.3370   0.07536   0.07129   0.0008  0.0303  1.0000
  17.500   1.3111   0.08654   0.08266  -0.0044  0.0297  1.0000
  18.000   1.2775   0.09948   0.09585  -0.0109  0.0292  1.0000
  18.500   1.2421   0.11366   0.11032  -0.0188  0.0289  1.0000
  19.000   1.1983   0.13006   0.12702  -0.0285  0.0286  1.0000
  19.500   1.1309   0.15236   0.14968  -0.0424  0.0282  1.0000  
  23.600   0.6102   0.24165   0.23978  -0.0682  0.0200  1.0000
  24.000   0.6158   0.24679   0.24493  -0.0705  0.0184  1.0000
  24.500   0.6253   0.25175   0.24990  -0.0730  0.0176  1.0000
  25.000   0.6370   0.25602   0.25419  -0.0749  0.0172  1.0000
  25.500   0.6374   0.26564   0.26382  -0.0787  0.0159  1.0000
  26.000   0.6452   0.27137   0.26955  -0.0814  0.0147  1.0000
  26.500   0.6538   0.27631   0.27451  -0.0839  0.0142  1.0000
  27.000   0.6645   0.28089   0.27911  -0.0858  0.0139  1.0000
  27.500   0.6647   0.29079   0.28901  -0.0897  0.0130  1.0000
  28.000   0.6715   0.29674   0.29498  -0.0924  0.0120  1.0000
  28.500   0.6787   0.30195   0.30020  -0.0950  0.0115  1.0000
  29.000   0.6866   0.30669   0.30496  -0.0973  0.0112  1.0000
  29.500   0.6903   0.31446   0.31274  -0.1003  0.0110  1.0000
  30.000   0.6945   0.32241   0.32071  -0.1033  0.0100  1.0000
