  
       XFOIL         Version 6.94
  
 Calculated polar for: Foil-2                                       
  
 1 1 Reynolds number fixed          Mach number fixed         
  
 xtrf =   1.000 (top)        1.000 (bottom)  
 Mach =   0.150     Re =     0.319 e 6     Ncrit =   9.000
  
  alpha     CL        CD       CDp       CM    Top_Xtr Bot_Xtr
 ------- -------- --------- --------- -------- ------- -------
   0.000   0.2953   0.01028   0.00557  -0.0816  0.9368  0.7422
   0.500   0.3644   0.00987   0.00519  -0.0835  0.9221  0.7524
   1.000   0.4259   0.00950   0.00492  -0.0834  0.9019  0.7605
   1.500   0.4860   0.00921   0.00465  -0.0833  0.8732  0.7704
   2.000   0.5424   0.00904   0.00449  -0.0820  0.8269  0.7785
   2.500   0.5967   0.00922   0.00434  -0.0805  0.7248  0.7883
   3.000   0.6374   0.01035   0.00463  -0.0766  0.5341  0.7967
   3.500   0.6797   0.01180   0.00521  -0.0742  0.3503  0.8063
   4.000   0.7254   0.01297   0.00586  -0.0723  0.2380  0.8151
   4.500   0.7758   0.01384   0.00648  -0.0714  0.1853  0.8243
   5.000   0.8262   0.01456   0.00713  -0.0703  0.1506  0.8331
   5.500   0.8777   0.01521   0.00774  -0.0694  0.1204  0.8422
   6.000   0.9273   0.01607   0.00852  -0.0682  0.0852  0.8514
   6.500   0.9732   0.01736   0.00974  -0.0662  0.0573  0.8605
   7.000   1.0180   0.01896   0.01141  -0.0641  0.0458  0.8706
   7.500   1.0617   0.02030   0.01287  -0.0617  0.0397  0.8799
   8.500   1.1436   0.02455   0.01758  -0.0563  0.0341  0.9020
   9.000   1.1828   0.02671   0.01999  -0.0534  0.0321  0.9143
   9.600   1.2204   0.03150   0.02517  -0.0493  0.0296  0.9332
  10.200   1.2516   0.03537   0.02969  -0.0441  0.0288  1.0000
  10.600   1.2694   0.03924   0.03404  -0.0414  0.0282  1.0000
  11.000   1.2726   0.04371   0.03902  -0.0373  0.0278  1.0000
  11.400   1.2586   0.04855   0.04430  -0.0318  0.0276  1.0000
  12.000   1.2199   0.05759   0.05397  -0.0262  0.0273  1.0000
  12.400   1.1832   0.06604   0.06281  -0.0265  0.0274  1.0000
  13.000   1.1102   0.08654   0.08384  -0.0384  0.0280  1.0000
  13.400   1.0351   0.11211   0.10969  -0.0570  0.0291  1.0000
  13.500   1.0139   0.11919   0.11678  -0.0609  0.0295  1.0000
  13.900   0.8002   0.13088   0.12862  -0.0612  0.0304  1.0000
  15.500   0.6277   0.16447   0.16230  -0.0631  0.0450  1.0000
  16.000   0.6335   0.17061   0.16845  -0.0665  0.0409  1.0000
  17.500   0.6520   0.19048   0.18832  -0.0757  0.0357  1.0000
  18.000   0.6596   0.19655   0.19440  -0.0787  0.0320  1.0000
  18.500   0.6730   0.20175   0.19961  -0.0803  0.0304  1.0000
  19.000   0.6878   0.21008   0.20794  -0.0814  0.0295  1.0000
  19.500   0.6803   0.21673   0.21459  -0.0876  0.0278  1.0000
  20.000   0.6885   0.22296   0.22083  -0.0904  0.0249  1.0000
  20.500   0.7000   0.22843   0.22632  -0.0922  0.0236  1.0000
  21.000   0.7136   0.23660   0.23449  -0.0934  0.0230  1.0000
  21.500   0.7100   0.24351   0.24141  -0.0989  0.0219  1.0000
  22.000   0.7172   0.25037   0.24828  -0.1018  0.0200  1.0000
  22.500   0.7255   0.25654   0.25447  -0.1043  0.0188  1.0000
  23.500   0.7413   0.27058   0.26853  -0.1090  0.0177  1.0000
  24.000   0.7452   0.27814   0.27609  -0.1128  0.0164  1.0000
