  
       XFOIL         Version 6.94
  
 Calculated polar for: Foil-3                                        
  
 1 1 Reynolds number fixed          Mach number fixed         
  
 xtrf =   1.000 (top)        1.000 (bottom)  
 Mach =   0.150     Re =     0.112 e 6     Ncrit =   9.000
  
  alpha     CL        CD       CDp       CM    Top_Xtr Bot_Xtr
 ------- -------- --------- --------- -------- ------- -------
   0.000  -0.0332   0.01483   0.00827  -0.0054  1.0000  0.9784
   0.500   0.0200   0.01502   0.00839  -0.0083  1.0000  1.0000
   1.000   0.0912   0.01572   0.00902  -0.0145  0.9965  1.0000
   1.500   0.2036   0.01665   0.00996  -0.0273  0.9735  1.0000
   2.000   0.3190   0.01680   0.01023  -0.0390  0.9406  1.0000
   2.500   0.4174   0.01639   0.01004  -0.0465  0.9092  1.0000
   3.000   0.5130   0.01526   0.00921  -0.0520  0.8753  1.0000
   3.500   0.5909   0.01372   0.00798  -0.0527  0.8258  1.0000
   4.000   0.6565   0.01256   0.00670  -0.0504  0.6773  1.0000
   4.500   0.6945   0.01486   0.00709  -0.0459  0.3510  1.0000
   5.000   0.7379   0.01722   0.00862  -0.0444  0.2278  1.0000
   5.500   0.7844   0.01956   0.01053  -0.0433  0.1506  1.0000
   6.000   0.8334   0.02225   0.01302  -0.0423  0.1071  1.0000
   7.500   0.9834   0.03344   0.02506  -0.0390  0.0597  1.0000
   8.000   1.0224   0.03943   0.03154  -0.0371  0.0553  1.0000
   8.500   1.0408   0.04691   0.04011  -0.0328  0.0530  1.0000
   9.000   1.0443   0.05587   0.04993  -0.0285  0.0533  1.0000
   9.500   1.0435   0.06521   0.05978  -0.0251  0.0551  1.0000
  10.000   0.9406   0.08102   0.07662  -0.0226  0.0628  1.0000
  10.400   0.9188   0.09056   0.08623  -0.0256  0.0656  1.0000
  13.000   0.8539   0.16925   0.16482  -0.0673  0.0948  1.0000
  14.000   0.8531   0.18465   0.18016  -0.0802  0.0833  1.0000
  15.000   0.8671   0.20123   0.19668  -0.0901  0.0764  1.0000
  16.000   0.9189   0.22234   0.21789  -0.0892  0.0670  1.0000
  17.000   0.9211   0.23160   0.22705  -0.1074  0.0614  1.0000
  18.000   0.9614   0.24858   0.24410  -0.1112  0.0553  1.0000
  19.000   0.9838   0.26134   0.25682  -0.1249  0.0521  1.0000
  20.000   1.0180   0.27531   0.27084  -0.1332  0.0453  1.0000
  21.000   1.0507   0.29172   0.28728  -0.1420  0.0432  1.0000
  22.000   1.0825   0.30341   0.29900  -0.1543  0.0382  1.0000
  23.000   1.1185   0.32367   0.31934  -0.1594  0.0350  1.0000
  24.000   1.1481   0.33080   0.32648  -0.1749  0.0317  1.0000
  25.000   1.1802   0.34476   0.34051  -0.1833  0.0285  1.0000
  26.000   1.2125   0.35632   0.35211  -0.1960  0.0263  1.0000
  27.000   1.2436   0.36801   0.36386  -0.2065  0.0233  1.0000
  28.000   1.2732   0.38026   0.37615  -0.2173  0.0219  1.0000
  29.000   1.3034   0.39114   0.38711  -0.2291  0.0191  1.0000
  29.800   1.3235   0.40281   0.39885  -0.2356  0.0178  1.0000
