  
       XFOIL         Version 6.94
  
 Calculated polar for: NACA 4416                                       
  
 1 1 Reynolds number fixed          Mach number fixed         
  
 xtrf =   1.000 (top)        1.000 (bottom)  
 Mach =   0.150     Re =     5.800 e 6     Ncrit =   9.000
  
  alpha     CL        CD       CDp       CM    Top_Xtr Bot_Xtr
 ------- -------- --------- --------- -------- ------- -------
  -5.000  -0.0946   0.00666   0.00172  -0.1027  0.6025  0.0567
  -4.000   0.0223   0.00649   0.00148  -0.1030  0.5593  0.0714
  -3.000   0.1395   0.00635   0.00131  -0.1034  0.5217  0.0920
  -2.000   0.2567   0.00625   0.00121  -0.1038  0.4882  0.1202
  -1.000   0.3745   0.00616   0.00117  -0.1044  0.4642  0.1550
   0.000   0.4920   0.00609   0.00118  -0.1050  0.4433  0.2066
   1.000   0.6093   0.00606   0.00126  -0.1056  0.4249  0.2682
   2.000   0.7260   0.00606   0.00139  -0.1061  0.4062  0.3472
   3.000   0.8405   0.00592   0.00160  -0.1065  0.3845  0.5318
   4.000   0.9525   0.00601   0.00193  -0.1063  0.3536  0.6971
   5.000   1.0605   0.00617   0.00238  -0.1052  0.3175  0.8841
   7.000   1.2701   0.00770   0.00364  -0.1021  0.2226  1.0000
   8.000   1.3626   0.00887   0.00453  -0.0983  0.1709  1.0000
   9.000   1.4418   0.01023   0.00565  -0.0921  0.1260  1.0000
  10.000   1.5149   0.01185   0.00707  -0.0853  0.0919  1.0000
  11.000   1.5848   0.01373   0.00883  -0.0786  0.0678  1.0000
  12.000   1.6494   0.01604   0.01107  -0.0720  0.0519  1.0000
  13.000   1.7069   0.01901   0.01401  -0.0654  0.0405  1.0000
  14.000   1.7595   0.02262   0.01766  -0.0593  0.0340  1.0000
  15.000   1.8018   0.02738   0.02248  -0.0536  0.0286  1.0000
  16.000   1.8344   0.03357   0.02877  -0.0487  0.0248  1.0000
  17.000   1.8564   0.04134   0.03666  -0.0448  0.0218  1.0000
  18.000   1.8621   0.05126   0.04673  -0.0418  0.0191  1.0000
  19.000   1.8603   0.06255   0.05823  -0.0402  0.0179  1.0000
  20.000   1.8387   0.07655   0.07243  -0.0399  0.0161  1.0000
  21.000   1.8196   0.09066   0.08677  -0.0409  0.0152  1.0000
  22.000   1.7898   0.10638   0.10270  -0.0435  0.0141  1.0000
  23.000   1.7586   0.12273   0.11928  -0.0478  0.0129  1.0000
  24.000   1.7347   0.13854   0.13531  -0.0537  0.0124  1.0000
  25.000   1.7069   0.15528   0.15226  -0.0617  0.0116  1.0000
  26.000   1.6771   0.17294   0.17012  -0.0720  0.0106  1.0000
  27.000   1.6566   0.18966   0.18707  -0.0834  0.0103  1.0000
  28.000   1.6337   0.20701   0.20463  -0.0965  0.0097  1.0000
  29.000   1.6064   0.22578   0.22361  -0.1119  0.0090  1.0000
  30.000   1.5766   0.24588   0.24393  -0.1293  0.0083  1.0000
  31.000   1.5646   0.26249   0.26072  -0.1447  0.0080  1.0000
  32.000   1.5429   0.28177   0.28020  -0.1628  0.0075  1.0000
  33.000   1.5176   0.30270   0.30130  -0.1827  0.0067  1.0000
  34.000   1.5045   0.32075   0.31950  -0.2005  0.0062  1.0000
  35.000   1.4972   0.33720   0.33608  -0.2175  0.0057  1.0000
