  
       XFOIL         Version 6.94
  
 Calculated polar for: NACA 4412                                       
  
 1 1 Reynolds number fixed          Mach number fixed         
  
 xtrf =   1.000 (top)        1.000 (bottom)  
 Mach =   0.150     Re =     2.300 e 6     Ncrit =   9.000
  
  alpha     CL        CD       CDp       CM    Top_Xtr Bot_Xtr
 ------- -------- --------- --------- -------- ------- -------
  -5.000  -0.0888   0.00713   0.00207  -0.1050  0.7767  0.0348
  -4.000   0.0259   0.00679   0.00160  -0.1049  0.7298  0.0479
  -3.000   0.1408   0.00654   0.00128  -0.1049  0.6795  0.0704
  -2.000   0.2554   0.00639   0.00109  -0.1049  0.6266  0.1097
  -1.000   0.3697   0.00633   0.00102  -0.1050  0.5756  0.1691
   0.000   0.4839   0.00629   0.00106  -0.1052  0.5303  0.2591
   1.000   0.5978   0.00614   0.00119  -0.1054  0.4940  0.4205
   5.000   1.0464   0.00658   0.00246  -0.1045  0.3567  1.0000
   6.000   1.1499   0.00761   0.00315  -0.1028  0.2815  1.0000
   7.000   1.2433   0.00933   0.00432  -0.0995  0.1754  1.0000
   8.000   1.3301   0.01131   0.00582  -0.0951  0.0874  1.0000
   9.000   1.4152   0.01309   0.00736  -0.0904  0.0469  1.0000
  10.000   1.4909   0.01477   0.00899  -0.0840  0.0309  1.0000
  11.000   1.5576   0.01681   0.01105  -0.0767  0.0226  1.0000
  12.000   1.6168   0.01946   0.01377  -0.0693  0.0175  1.0000
  13.000   1.6704   0.02280   0.01724  -0.0624  0.0150  1.0000
  14.000   1.7124   0.02743   0.02206  -0.0559  0.0129  1.0000
  15.000   1.7374   0.03415   0.02897  -0.0501  0.0110  1.0000
  17.000   1.7596   0.05328   0.04865  -0.0441  0.0094  1.0000
  18.000   1.7387   0.06797   0.06366  -0.0441  0.0085  1.0000
  19.000   1.7062   0.08504   0.08109  -0.0463  0.0081  1.0000
  20.000   1.6733   0.10285   0.09924  -0.0502  0.0078  1.0000
  21.000   1.6322   0.12263   0.11935  -0.0566  0.0074  1.0000
  22.000   1.5872   0.14406   0.14113  -0.0659  0.0071  1.0000
  23.000   1.5399   0.16707   0.16447  -0.0785  0.0068  1.0000
  24.000   1.4876   0.19308   0.19083  -0.0954  0.0066  1.0000
  25.000   1.4359   0.22115   0.21924  -0.1157  0.0063  1.0000
  26.000   1.4037   0.24711   0.24547  -0.1356  0.0060  1.0000
  27.000   1.3870   0.27063   0.26923  -0.1542  0.0058  1.0000
  28.000   1.3711   0.29602   0.29484  -0.1741  0.0054  1.0000
 