*Heading
** Job name: TIMCompCircularSim Model name: Model-1
** Generated by: Abaqus/CAE Student Edition 6.13-2
*Preprint, echo=NO, model=NO, history=NO, contact=NO
**
** PARTS
**
*Part, name=TIMCompCirc
*Node
      1,   2.07179666,           0.
      2,          16.,           1.
      3,   15.9282036,           0.
      4,          70.,           0.
      5,          70.,          70.
      6,   15.9282036,          70.
      7,          16.,          69.
      8,   2.07179666,          70.
      9,           0.,          70.
     10,           0.,           0.
     11,          57.,          47.
     12,          47.,          62.
     13,          66.,          30.
     14,          54.,          12.
     15,   2.36852551,   3.24132705
     16,   4.09904003,    5.9980588
     17,   6.88918686,    7.6741643
     18,   10.1357107,   7.90725422
     19,   13.1366844,    6.6469326
     20,    15.243268,   4.16569185
** ... 490 like lines cut
*Element, type=CPS3
  1,   1,  15,  10
  2,  91,  15,  16
  3, 147,  72,  75
  4, 152,  16,  17
  5,  75,  72,  73
  6,  74,  73,   9
  7,   9,  73,   8
  8, 148,  17,  18
  9, 149,  71, 147
 10, 241, 209,  87
 11, 242, 210, 209
 12, 350, 323, 349
 13, 186, 169, 100
 14, 362, 340, 310
 15, 281, 235, 169
 16, 237, 236, 235
 17, 164, 120, 159
 18, 159, 104, 103
 19, 173, 118, 161
 20, 161, 117,  44
** ... 918 like lines cut
*Nset, nset=Set-1
   1,   2,   3,   4,   5,   6,   7,   8,   9,  10,  11,  12,  13,  14,  15,  16
  17,  18,  19,  20,  21,  22,  23,  24,  25,  26,  27,  28,  29,  30,  31,  32
  33,  34,  35,  36,  37,  38,  39,  40,  41,  42,  43,  44,  45,  46,  47,  48
  49,  50,  51,  52,  53,  54,  55,  56,  57,  58,  59,  60,  61,  62,  63,  64
  65,  66,  67,  68,  69,  70,  71,  72,  73,  74,  75,  76,  77,  78,  79,  80
  81,  82,  83,  84,  85,  86,  87,  88,  89,  90,  91,  92,  93,  94,  95,  96
  97,  98,  99, 100, 101, 102, 103, 104, 105, 106, 107, 108, 109, 110, 111, 112
 113, 114, 115, 116, 117, 118, 119, 120, 121, 122, 123, 124, 125, 126, 127, 128
 129, 130, 131, 132, 133, 134, 135, 136, 137, 138, 139, 140, 147, 148, 149, 150
 151, 152, 153, 154, 155, 156, 157, 158, 159, 160, 161, 162, 163, 164, 165, 166
 167, 168, 169, 170, 171, 172, 173, 174, 175, 176, 177, 178, 179, 180, 181, 182
 183, 184, 185, 186, 187, 188, 189, 190, 191, 192, 193, 194, 195, 196, 197, 198
 199, 200, 201, 202, 203, 204, 205, 206, 207, 208, 209, 210, 211, 212, 213, 214
 215, 216, 217, 218, 219, 220, 221, 222, 223, 224, 225, 226, 227, 228, 229, 230
 231, 232, 233, 234, 235, 236, 237, 238, 239, 240, 241, 242, 243, 244, 245, 246
 247, 248, 249, 250, 251, 252, 253, 254, 255, 256, 257, 258, 259, 260, 261, 262
 263, 264, 265, 266, 267, 268, 269, 270, 271, 272, 273, 274, 275, 276, 277, 278
 279, 280, 281, 282, 283, 284, 285, 286, 287, 288, 289, 290, 291, 292, 293, 294
 295, 296, 297, 298, 299, 300, 301, 302, 303, 304, 305, 306, 307, 308, 309, 310
 311, 312, 313, 314, 315, 316, 317, 318, 319, 320, 321, 322, 323, 324, 325, 326
** ... 10 like lines cut
*Elset, elset=Set-1, generate
   1,  800,    1
*Nset, nset=Set-2
   1,   2,   3,   6,   7,   8,  11,  12,  13,  14,  15,  16,  17,  18,  19,  20
  68,  69,  70,  71,  72,  73,  93,  94,  95,  96,  97,  98,  99, 100, 101, 102
 103, 104, 105, 106, 107, 108, 109, 110, 111, 112, 113, 114, 115, 116, 117, 118
 119, 120, 121, 122, 123, 124, 125, 126, 127, 128, 129, 130, 131, 132, 133, 134
 135, 136, 137, 138, 139, 140, 141, 142, 143, 144, 145, 146, 474, 475, 476, 477
 478, 479, 480, 481, 482, 483, 484, 485, 486, 487, 488, 489, 490, 491, 492, 493
 494, 495, 496, 497, 498, 499, 500, 501, 502, 503, 504, 505, 506, 507, 508, 509
 510,
*Elset, elset=Set-2, generate
 801,  938,    1
** Section: matrixSection
*Solid Section, elset=Set-1, material=matrix
,
** Section: fibreSection
*Solid Section, elset=Set-2, material=fibre
,
*End Part
**  
**
** ASSEMBLY
**
*Assembly, name=Assembly
**  
*Instance, name=TIMCompCirc-1, part=TIMCompCirc
*End Instance
**  
*End Assembly
** 
** MATERIALS
** 
*Material, name=fibre
*Elastic
 4.5e+11, 0.15
*Material, name=matrix
*Elastic
 7e+10, 0.33
** ----------------------------------------------------------------
** 
** STEP: loadHere
** 
*Step, name=loadHere, nlgeom=NO
*Static
1., 1., 1e-05, 1.
** 
** OUTPUT REQUESTS
** 
*Restart, write, frequency=0
** 
** FIELD OUTPUT: F-Output-1
** 
*Output, field, variable=PRESELECT
** 
** HISTORY OUTPUT: H-Output-1
** 
*Output, history, variable=PRESELECT
*End Step
