*Heading
** Job name: 2D-TriArrayWithPeriodicity Model name: Model-1
** Generated by: Abaqus/CAE 6.10-1
*Preprint, echo=NO, model=NO, history=NO, contact=NO
**
** PARTS
**
*Part, name=RVE2DComposite
*Node
      1,           0.,   40.8333015
      2,          7.5,   33.3333015
      3,           0.,   25.8332996
      4,           0.,           0.
      5,           5.,           0.
      6,          20.,           0.
      7,          30.,           0.
      8,          45.,           0.
      9,          50.,           0.
     10,          50.,   25.8332996
     11,          50.,   40.8333015
     12,          50.,          50.
     13,          45.,          50.
     14,          30.,          50.
     15,          20.,          50.
     16,           5.,          50.
     17,           0.,          50.
     18,          20.,   16.6667004
     19,          45.,   16.6667004
     20,         32.5,   33.3333015
** ... 2843 like lines cut
*Element, type=CPS3
   1,  760,   21,  494
   2, 1283, 1121, 1051
   3, 1479, 1428, 1284
   4, 1262,  924, 1011
   5, 1011,  924,  239
   6,  761,  240,  241
   7, 1050,  761, 1010
   8, 1284,  728, 1050
   9,  760,  257,   21
  10, 1051,  894,  928
  11, 1052,  927,  514
  12,  925,  762,   29
  13, 1159, 1053,  770
  14, 1704, 1616, 1538
  15, 1641,  545, 1536
  16, 1350,  551, 1158
  17, 1480, 1162,  557
  18, 1286,  907, 1171
  19, 1287, 1058, 1023
  20, 1444, 1288, 1275
** ... 5504 like lines cut
*Nset, nset=Frontface
   9,  10,  11,  12, 131, 132, 133, 134, 135, 136, 137, 138, 139, 140, 141, 142
 143, 144, 145, 146, 147, 148, 149, 150, 151, 152, 153, 154, 155, 179, 180, 181
 182, 183, 184, 185, 186, 424, 425, 426, 427, 428, 429, 430, 431, 432, 433, 434
 435, 436, 437
*Elset, elset=Frontface
  157,  160,  172,  181,  182,  186,  190,  192,  291,  296,  300,  612,  813,  816,  817,  820
  822,  825,  826,  827,  831,  833,  845,  849, 1045, 1047, 1058, 1065, 1114, 1249, 1257, 1379
 1399, 1425, 1427, 3497, 3510, 3522, 3526, 3527, 3545, 3547, 3550, 3552, 3554, 3556, 3558, 3560
 3562, 3564
*Nset, nset=_PickedSet4, internal
    1,    2,    3,    5,    6,    7,    8,   10,   11,   13,   14,   15,   16,   18,   19,   20
   21,   22,   23,   24,   25,   26,   27,   28,   29,   30,   31,   32,   33,   34,   35,   36
   37,   38,   39,   40,   41,   42,   72,   73,   74,   75,   76,   77,   78,   79,   80,   81
   82,   83,   84,   85,   86,   87,   88,   89,   90,   91,   92,   93,   94,  104,  105,  106
  107,  108,  109,  110,  111,  112,  113,  114,  115,  116,  117,  118,  119,  120,  121,  122
  123,  124,  125,  126,  156,  157,  158,  159,  160,  161,  162,  163,  164,  165,  166,  167
  168,  169,  170,  171,  172,  173,  174,  175,  176,  177,  178,  191,  192,  193,  194,  195
  196,  197,  198,  199,  200,  201,  202,  203,  204,  205,  206,  207,  208,  209,  210,  211
  212,  213,  223,  224,  225,  226,  227,  228,  229,  230,  231,  232,  233,  234,  235,  236
  237,  238,  239,  240,  241,  242,  243,  244,  245,  258,  259,  260,  261,  262,  263,  264
  265,  266,  267,  268,  269,  270,  271,  272,  273,  274,  275,  276,  277,  278,  279,  280
  281,  282,  283,  284,  285,  286,  287,  288,  289,  290,  291,  292,  293,  294,  295,  296
  297,  298,  299,  300,  301,  302,  303,  304,  305,  306,  307,  308,  309,  310,  311,  312
  313,  314,  315,  316,  317,  318,  319,  320,  321,  322,  323,  324,  325,  326,  327,  328
  329,  330,  331,  332,  333,  334,  335,  336,  337,  338,  339,  340,  341,  342,  343,  344
  345,  346,  347,  348,  349,  350,  351,  352,  353,  354,  355,  356,  357,  358,  359,  360
  361,  362,  363,  364,  365,  366,  367,  368,  369,  370,  371,  372,  373,  374,  375,  376
  377,  378,  379,  380,  381,  382,  383,  384,  385,  386,  387,  388,  389,  390,  391,  392
  393,  394,  395,  396,  397,  398,  399,  400,  401,  402,  403,  404,  405,  406,  407,  408
  409,  410,  411,  412,  413,  414,  415,  416,  417,  418,  419,  420,  421,  422,  423,  424
** ... 70 like lines cut
*Elset, elset=_PickedSet4, internal, generate
 3056,  5524,     1
*Nset, nset=_PickedSet5, internal
    1,    2,    3,    4,    5,    6,    7,    8,    9,   10,   11,   12,   13,   14,   15,   16
   17,   18,   19,   20,   21,   22,   23,   24,   25,   26,   27,   28,   29,   30,   31,   32
   33,   34,   35,   36,   37,   38,   39,   40,   41,   42,   43,   44,   45,   46,   47,   48
   49,   50,   51,   52,   53,   54,   55,   56,   57,   58,   59,   60,   61,   62,   63,   64
   65,   66,   67,   68,   69,   70,   71,   72,   73,   74,   75,   76,   77,   78,   79,   80
   81,   82,   83,   84,   85,   86,   87,   88,   89,   90,   91,   92,   93,   94,   95,   96
   97,   98,   99,  100,  101,  102,  103,  104,  105,  106,  107,  108,  109,  110,  111,  112
  113,  114,  115,  116,  117,  118,  119,  120,  121,  122,  123,  124,  125,  126,  127,  128
  129,  130,  131,  132,  133,  134,  135,  136,  137,  138,  139,  140,  141,  142,  143,  144
  145,  146,  147,  148,  149,  150,  151,  152,  153,  154,  155,  156,  157,  158,  159,  160
  161,  162,  163,  164,  165,  166,  167,  168,  169,  170,  171,  172,  173,  174,  175,  176
  177,  178,  179,  180,  181,  182,  183,  184,  185,  186,  187,  188,  189,  190,  191,  192
  193,  194,  195,  196,  197,  198,  199,  200,  201,  202,  203,  204,  205,  206,  207,  208
  209,  210,  211,  212,  213,  214,  215,  216,  217,  218,  219,  220,  221,  222,  223,  224
  225,  226,  227,  228,  229,  230,  231,  232,  233,  234,  235,  236,  237,  238,  239,  240
  241,  242,  243,  244,  245,  246,  247,  248,  249,  250,  251,  252,  253,  254,  255,  256
  257,  258,  259,  260,  261,  262,  263,  264,  265,  266,  267,  268,  269,  270,  271,  272
  273,  274,  275,  276,  277,  278,  279,  280,  281,  282,  283,  284,  285,  286,  287,  288
  289,  290,  291,  292,  293,  294,  295,  296,  297,  298,  299,  300,  301,  302,  303,  304
  305,  306,  307,  308,  309,  310,  311,  312,  313,  314,  315,  316,  317,  318,  319,  320
** ... 88 like lines cut
*Elset, elset=_PickedSet5, internal, generate
    1,  3055,     1
** Section: matrixSection
*Solid Section, elset=_PickedSet5, material=matrix
,
** Section: fibreSection
*Solid Section, elset=_PickedSet4, material=fibre
,
*End Part
**  
**
** ASSEMBLY
**
*Assembly, name=Assembly
**  
*Instance, name=RVE2DComposite, part=RVE2DComposite
*End Instance
**  
*Nset, nset=_PickedSet8, internal, instance=RVE2DComposite
   1,   3,   4,  17,  43,  44,  45,  46,  47,  48,  49,  50,  51,  52,  53,  54
  55,  56,  57,  58,  59,  60,  61,  62,  63,  64,  65,  66,  67, 250, 251, 252
 253, 254, 255, 256, 257, 466, 467, 468, 469, 470, 471, 472, 473, 474, 475, 476
 477, 478, 479
*Elset, elset=_PickedSet8, internal, instance=RVE2DComposite
   95,  123,  126,  131,  339,  375,  381,  382,  757,  763,  765,  767,  769,  770,  771,  772
  776,  779,  883,  886,  887,  961, 1001, 1017, 1021, 1149, 1153, 1167, 1171, 1309, 1323, 1331
 1333, 1479, 1481, 4142, 4153, 4155, 4167, 4169, 4174, 4190, 4192, 4195, 4197, 4199, 4201, 4203
 4205, 4207
*Elset, elset=__PickedSurf9_S2, internal, instance=RVE2DComposite
  157,  160,  172,  181,  182,  186,  190,  192,  291,  296,  300,  612,  813,  816,  817,  820
  822,  825,  826,  827,  831,  833,  849, 1045, 1047, 1058, 1065, 1114, 1249, 1257, 1379, 1399
 1425, 1427, 3510, 3522, 3526, 3527, 3545, 3547, 3550, 3552, 3554, 3556, 3558, 3560, 3562, 3564
*Elset, elset=__PickedSurf9_S1, internal, instance=RVE2DComposite
  845, 3497
*Surface, type=ELEMENT, name=_PickedSurf9, internal
__PickedSurf9_S2, S2
__PickedSurf9_S1, S1
*End Assembly
** 
** MATERIALS
** 
*Material, name=fibre
*Elastic
 7.35e+10, 0.2
*Material, name=matrix
*Elastic
 1.38e+09, 0.4
** ----------------------------------------------------------------
** 
** STEP: Step-1
** 
*Step, name=Step-1
*Static
1., 1., 1e-05, 1.
** 
** BOUNDARY CONDITIONS
** 
** Name: FixedSupport Type: Displacement/Rotation
*Boundary
_PickedSet8, 1, 1
** 
** LOADS
** 
** Name: ApplyPressure   Type: Pressure
*Dsload
_PickedSurf9, P, -2.662e+07
** 
** OUTPUT REQUESTS
** 
*Restart, write, frequency=0
** 
** FIELD OUTPUT: F-Output-1
** 
*Output, field, variable=PRESELECT
** 
** HISTORY OUTPUT: H-Output-2
** 
*Output, history
*Node Output, nset=RVE2DComposite.Frontface
COOR1, COOR2, RF1, RF2, U1, U2
*Element Output, elset=RVE2DComposite.Frontface
E11, E12, E22, MISES, S11, S12, S22
** 
** HISTORY OUTPUT: H-Output-1
** 
*Output, history, variable=PRESELECT
*End Step
