*Heading
** Job name: UDComposite Model name: Model-1
** Generated by: Abaqus/CAE Student Edition 6.13-2
*Preprint, echo=NO, model=NO, history=NO, contact=NO
**
** PARTS
**
*Part, name=UDComposite
*Node
      1,          50.,   32.2917976
      2,          50.,   45.7082024
      3,          50.,          50.
      4,           0.,          50.
      5,           0.,   45.7082024
      6,           2.,          46.
      7,           0.,   32.2917976
      8,           0.,           0.
      9,          50.,           0.
     10,          27.,          16.
     11,          12.,          27.
     12,          29.,          34.
     13,          20.,          49.
     14,   47.7316437,   33.4519272
     15,   46.0287437,   35.3470459
     16,   45.1168938,   37.7260933
     17,   45.1168938,   40.2739067
     18,   46.0287437,   42.6529541
     19,   47.7316437,   44.5480728
     20,          50.,   47.8541031
** ... 478 like lines cut
*Element, type=CPS3
  1, 385, 379, 368
  2, 296, 254, 253
  3, 218, 142, 179
  4, 367, 353, 330
  5, 226, 189, 155
  6, 222,  12, 143
  7, 226, 155, 154
  8, 226, 127,  12
  9, 196, 154, 153
 10, 182, 153, 152
 11, 397, 216, 186
 12, 406, 313, 397
 13, 180, 126, 125
 14, 206, 180, 125
 15, 203, 130, 129
 16, 206, 124, 183
 17, 183, 132, 131
 18, 309, 193, 187
 19, 217, 187,  10
 20, 278, 109, 181
** ... 894 like lines cut
*Nset, nset=Set-1
   1,   2,   3,   4,   5,   6,   7,   8,   9,  10,  11,  12,  13,  14,  15,  16
  17,  18,  19,  20,  21,  22,  23,  24,  25,  26,  27,  28,  29,  30,  31,  32
  33,  34,  35,  36,  37,  38,  39,  40,  41,  42,  43,  44,  45,  46,  47,  48
  49,  50,  51,  52,  53,  54,  55,  56,  57,  58,  59,  60,  61,  62,  63,  64
  65,  66,  67,  68,  69,  70,  71,  72,  73,  74,  75,  76,  77,  78,  79,  80
  81,  82,  83,  84,  85,  86,  87,  88,  89,  90,  91,  92,  93,  94,  95,  96
  97,  98,  99, 100, 101, 102, 103, 104, 105, 106, 107, 108, 109, 110, 111, 112
 113, 114, 115, 116, 117, 118, 119, 120, 121, 122, 123, 124, 125, 126, 127, 128
 129, 130, 131, 132, 133, 134, 135, 136, 137, 138, 139, 140, 141, 142, 143, 144
 145, 146, 147, 148, 149, 150, 151, 152, 153, 154, 155, 156, 157, 158, 159, 160
 169, 170, 171, 172, 173, 174, 175, 176, 177, 178, 179, 180, 181, 182, 183, 184
 185, 186, 187, 188, 189, 190, 191, 192, 193, 194, 195, 196, 197, 198, 199, 200
 201, 202, 203, 204, 205, 206, 207, 208, 209, 210, 211, 212, 213, 214, 215, 216
 217, 218, 219, 220, 221, 222, 223, 224, 225, 226, 227, 228, 229, 230, 231, 232
 233, 234, 235, 236, 237, 238, 239, 240, 241, 242, 243, 244, 245, 246, 247, 248
 249, 250, 251, 252, 253, 254, 255, 256, 257, 258, 259, 260, 261, 262, 263, 264
 265, 266, 267, 268, 269, 270, 271, 272, 273, 274, 275, 276, 277, 278, 279, 280
 281, 282, 283, 284, 285, 286, 287, 288, 289, 290, 291, 292, 293, 294, 295, 296
 297, 298, 299, 300, 301, 302, 303, 304, 305, 306, 307, 308, 309, 310, 311, 312
 313, 314, 315, 316, 317, 318, 319, 320, 321, 322, 323, 324, 325, 326, 327, 328
** ... 5 like lines cut
*Elset, elset=Set-1, generate
   1,  644,    1
*Nset, nset=Set-2
   1,   2,   5,   6,   7,  10,  11,  12,  13,  14,  15,  16,  17,  18,  19,  41
  42,  43,  44,  45,  46,  47,  48,  49,  93,  94,  95,  96,  97,  98,  99, 100
 101, 102, 103, 104, 105, 106, 107, 108, 109, 110, 111, 112, 113, 114, 115, 116
 117, 118, 119, 120, 121, 122, 123, 124, 125, 126, 127, 128, 129, 130, 131, 132
 133, 134, 135, 136, 137, 138, 139, 140, 141, 142, 143, 144, 145, 146, 147, 148
 149, 150, 151, 152, 153, 154, 155, 156, 157, 158, 159, 160, 161, 162, 163, 164
 165, 166, 167, 168, 408, 409, 410, 411, 412, 413, 414, 415, 416, 417, 418, 419
 420, 421, 422, 423, 424, 425, 426, 427, 428, 429, 430, 431, 432, 433, 434, 435
 436, 437, 438, 439, 440, 441, 442, 443, 444, 445, 446, 447, 448, 449, 450, 451
 452, 453, 454, 455, 456, 457, 458, 459, 460, 461, 462, 463, 464, 465, 466, 467
 468, 469, 470, 471, 472, 473, 474, 475, 476, 477, 478, 479, 480, 481, 482, 483
 484, 485, 486, 487, 488, 489, 490, 491, 492, 493, 494, 495, 496, 497, 498
*Elset, elset=Set-2, generate
 645,  914,    1
** Section: Section-2
*Solid Section, elset=Set-1, material=matrix
,
** Section: Section-1
*Solid Section, elset=Set-2, material=fibre
,
*End Part
**  
**
** ASSEMBLY
**
*Assembly, name=Assembly
**  
*Instance, name=UDComposite-1, part=UDComposite
*End Instance
**  
*End Assembly
** 
** MATERIALS
** 
*Material, name=fibre
*Elastic
 7.5e+10, 0.2
*Material, name=matrix
*Elastic
 1.4e+09, 0.4
** ----------------------------------------------------------------
** 
** STEP: Step-1
** 
*Step, name=Step-1, nlgeom=NO
*Static
1., 1., 1e-05, 1.
** 
** OUTPUT REQUESTS
** 
*Restart, write, frequency=0
** 
** FIELD OUTPUT: F-Output-1
** 
*Output, field, variable=PRESELECT
** 
** HISTORY OUTPUT: H-Output-1
** 
*Output, history, variable=PRESELECT
*End Step
