*Heading
** Job name: RVE2DVoided Model name: Model-1
** Generated by: Abaqus/CAE Student Edition 6.13-2
*Preprint, echo=NO, model=NO, history=NO, contact=NO
**
** PARTS
**
*Part, name=RVE2DVoided
*Node
      1,  -13.5983496,  -18.3838844
      2,       -13.75,       -16.25
      3,  -15.3661165,  -14.8483496
      4,        -17.5,         -15.
      5,  -18.9016514,  -16.6161156
      6,       -18.75,       -18.75
      7,  -17.1338844,  -20.1516514
      8,         -15.,         -20.
      9,  -3.81281567,   10.3661165
     10,          -5.,          15.
     11,  -9.11611652,   17.4371853
     12,       -13.75,        16.25
     13,  -16.1871853,   12.1338835
     14,         -15.,          7.5
     15,  -10.8838835,   5.06281567
     16,        -6.25,         6.25
     17,         12.5,  -17.2855339
     18,          15.,       -16.25
     19,   16.0355339,       -13.75
     20,          15.,       -11.25
** ... 182 like lines cut
*Element, type=CPS3
  1,  83,  44,  62
  2, 187,  83,  89
  3, 119,  85,  41
  4, 196, 138,  73
  5, 138,  38, 116
  6, 197, 196,  73
  7, 196,  35,  36
  8, 197,  34,  35
  9, 199,  32,  33
 10, 137,  74,  77
 11,  77,  10,   9
 12, 108,  94,  65
 13, 184,  97, 111
 14, 186, 177, 157
 15,  72,  65,  20
 16, 192, 151,  96
 17, 191,  96,  66
 18, 201, 191,  93
 19, 193,  93,  67
 20,  91,  71,  24
** ... 332 like lines cut
*Nset, nset=Set-3, generate
   1,  202,    1
*Elset, elset=Set-3, generate
   1,  352,    1
** Section: steelSect
*Solid Section, elset=Set-3, material=steel
,
*End Part
**  
**
** ASSEMBLY
**
*Assembly, name=Assembly
**  
*Instance, name=RVE2DVoided-1, part=RVE2DVoided
*End Instance
**  
*End Assembly
** 
** MATERIALS
** 
*Material, name=steelMat
*Elastic
 2.1e+11, 0.3
