*Heading
** Job name: LShapeHeat Model name: Model-1
**
** PARTS
**
*Part, name=Part-1
*End Part
**
** ASSEMBLY
**
*Assembly, name=Assembly
**  
*Instance, name=Part-1-1, part=Part-1
*Node
      1,         0.03,           0.
      2,         0.03,        0.015
      3,         0.03,         0.03
      4,           0.,         0.03
      5,           0.,           0.
      6,         0.06,           0.
      7,         0.06,        0.015
      8,         0.03,  0.001037551
      9,         0.03,  0.002037932
     10,         0.03,  0.003002476
     11,         0.03,  0.003932467
     12,         0.03,  0.004829141
     13,         0.03,  0.005693692
     14,         0.03,  0.006527273
     15,         0.03,   0.00733099
     16,         0.03,  0.008105916
     17,         0.03,   0.00885308
     18,         0.03,  0.009573478
     19,         0.03,   0.01026807
     20,         0.03,   0.01093778
** ... 689 like lines cut
*Element, type=DC2D3
1, 490, 474, 465
440, 708, 701, 702
*Element, type=DC2D4
  2,  17,  18, 128, 185
  3,  29,  30, 130, 129
  4,  30,  31, 147, 130
  5,  53,  54, 167, 166
  6,  27,  28, 131, 132
  7, 226, 131, 129, 235
  8, 168,  65,  66, 133
  9, 135, 177, 216, 197
 10, 176,  80,  81, 180
 11, 135,  68,  69, 177
 12,  67, 134, 133,  66
 13,  79, 228, 198,  78
 14,   2,  27, 132, 136
 15, 180, 182, 230, 199
 16, 140,  75,  76, 178
 17,  72, 144, 141,  71
 18,  24,  25, 138, 139
 19, 139, 181,  23,  24
 20, 200,  74,  75, 140
 21,  82, 182, 180,  81
** ... 633 like lines cut
** Region: (Section-1:Picked)
*Elset, elset=_I1, internal, generate
   1,  439,    1
** Section: Section-1
*Solid Section, elset=_I1, material=Material-1
1.,
** Region: (Section-2:Picked)
*Elset, elset=_I2, internal, generate
 440,  655,    1
** Section: Section-2
*Solid Section, elset=_I2, material=Material-2
1.,
*End Instance
*Nset, nset=_PickedSet6, internal, instance=Part-1-1
   1,   2,   3,   4,   5,   8,   9,  10,  11,  12,  13,  14,  15,  16,  17,  18
  19,  20,  21,  22,  23,  24,  25,  26,  27,  28,  29,  30,  31,  32,  33,  34
  35,  36,  37,  38,  39,  40,  41,  42,  43,  44,  45,  46,  47,  48,  49,  50
  51,  52,  53,  54,  55,  56,  57,  58,  59,  60,  61,  62,  63,  64,  65,  66
  67,  68,  69,  70,  71,  72,  73,  74,  75,  76,  77,  78,  79,  80,  81,  82
  83,  84,  85,  86,  87, 128, 129, 130, 131, 132, 133, 134, 135, 136, 137, 138
 139, 140, 141, 142, 143, 144, 145, 146, 147, 148, 149, 150, 151, 152, 153, 154
 155, 156, 157, 158, 159, 160, 161, 162, 163, 164, 165, 166, 167, 168, 169, 170
 171, 172, 173, 174, 175, 176, 177, 178, 179, 180, 181, 182, 183, 184, 185, 186
 187, 188, 189, 190, 191, 192, 193, 194, 195, 196, 197, 198, 199, 200, 201, 202
 203, 204, 205, 206, 207, 208, 209, 210, 211, 212, 213, 214, 215, 216, 217, 218
 219, 220, 221, 222, 223, 224, 225, 226, 227, 228, 229, 230, 231, 232, 233, 234
 235, 236, 237, 238, 239, 240, 241, 242, 243, 244, 245, 246, 247, 248, 249, 250
 251, 252, 253, 254, 255, 256, 257, 258, 259, 260, 261, 262, 263, 264, 265, 266
 267, 268, 269, 270, 271, 272, 273, 274, 275, 276, 277, 278, 279, 280, 281, 282
 283, 284, 285, 286, 287, 288, 289, 290, 291, 292, 293, 294, 295, 296, 297, 298
 299, 300, 301, 302, 303, 304, 305, 306, 307, 308, 309, 310, 311, 312, 313, 314
 315, 316, 317, 318, 319, 320, 321, 322, 323, 324, 325, 326, 327, 328, 329, 330
 331, 332, 333, 334, 335, 336, 337, 338, 339, 340, 341, 342, 343, 344, 345, 346
 347, 348, 349, 350, 351, 352, 353, 354, 355, 356, 357, 358, 359, 360, 361, 362
** ... 11 like lines cut
*Elset, elset=_PickedSet6, internal, instance=Part-1-1, generate
   1,  439,    1
*Nset, nset=_PickedSet7, internal, instance=Part-1-1
   1,   5,   6,  74,  75,  76,  77,  78,  79,  80,  81,  82,  83,  84,  85,  86
  87,  88,  89,  90,  91,  92,  93,  94,  95,  96,  97,  98,  99, 100, 101
*Elset, elset=_PickedSet7, internal, instance=Part-1-1
  10,  13,  16,  20,  21,  52,  54,  59,  78,  86, 125, 127, 136, 139, 171, 444
 450, 454, 457, 458, 462, 467, 468, 469, 471, 497, 498, 499, 500, 523
*Elset, elset=__PickedSurf4_S1, internal, instance=Part-1-1
   3,   4,   5,   6,  14,  23,  24,  25,  26,  27,  29,  30,  40,  46,  92,  93
  96,  99, 102, 103, 104, 107, 109, 111
*Elset, elset=__PickedSurf4_S3, internal, instance=Part-1-1
 32, 35, 36, 37, 41, 44, 48, 73
*Elset, elset=__PickedSurf4_S4, internal, instance=Part-1-1
  36, 118, 441, 442, 449, 464, 473, 492, 495, 520
*Elset, elset=__PickedSurf4_S2, internal, instance=Part-1-1
 117, 443, 447, 448, 466, 477, 496, 501, 505, 507, 529, 533, 538
*Surface, type=ELEMENT, name=_PickedSurf4, internal
__PickedSurf4_S1, S1
__PickedSurf4_S3, S3
__PickedSurf4_S4, S4
__PickedSurf4_S2, S2
*Elset, elset=__PickedSurf5_S4, internal, instance=Part-1-1
  12,  17,  43,  48,  49,  53,  56,  79, 113, 119
*Elset, elset=__PickedSurf5_S2, internal, instance=Part-1-1
   8,  11,  77, 120
*Elset, elset=__PickedSurf5_S1, internal, instance=Part-1-1
 59,
*Surface, type=ELEMENT, name=_PickedSurf5, internal
__PickedSurf5_S4, S4
__PickedSurf5_S2, S2
__PickedSurf5_S1, S1
*End Assembly
** 
** MATERIALS
** 
*Material, name=Material-1
*Conductivity
45.,
*Material, name=Material-2
*Conductivity
25.,
** ----------------------------------------------------------------
** 
** STEP: Step-1
** 
*Step, name=Step-1, amplitude=RAMP
*Heat Transfer, steady state, deltmx=0.
1., 1., 1e-05, 1., 
** 
** BOUNDARY CONDITIONS
** 
** Name: BC-1 Type: Temperature
*Boundary
_PickedSet7, 11, 11, 110.
** 
** LOADS
** 
** Name: Load-1   Type: Surface heat flux
*Dsflux
_PickedSurf5, S, 8000.
** Name: Load-2   Type: Body heat flux
*Dflux
_PickedSet6, BF, 5e+06
** 
** INTERACTIONS
** 
** Interaction: Int-1
*Sfilm
_PickedSurf4, F, 20., 55.
** 
** OUTPUT REQUESTS
** 
*Restart, write, frequency=1
** 
** FIELD OUTPUT: F-Output-2
** 
*Output, field
*Node Output
NT, 
*Element Output
HFL, 
** 
** FIELD OUTPUT: F-Output-1
** 
*Output, field, variable=PRESELECT
** 
** HISTORY OUTPUT: H-Output-1
** 
*Output, history, variable=PRESELECT
*El Print, freq=999999
*Node Print, freq=999999
*End Step
